6

C            -0.0467346111111           0.6659347777777           0.0000000000000
H             0.4373823888889           1.0728567777776           0.8893160000002
H             0.4373823888889           1.0728567777776          -0.8893160000002
H            -1.0876796111109           0.9752327777779           0.0000000000000
H             0.8671993888888          -1.0551132222220           0.0000000000000
O            -0.0467346111111          -0.7576802222224           0.0000000000000
6

C            -0.0468667626651           0.6667840104259           0.0000000000000
H             0.4398885689974           1.0739917268398           0.8920378661056
H             0.4398885689974           1.0739917268398          -0.8920378661056
H            -1.0902889584734           0.9801452071423           0.0000000000000
H             0.8666464977918          -1.0574440213536           0.0000000000000
O            -0.0468667626651          -0.7589235877527           0.0000000000000
6

C            -0.0468405327965           0.6666850002632           0.0000000000000
H             0.4395679836782           1.0741519504104           0.8922011206402
H             0.4395679836782           1.0741519504104          -0.8922011206402
H            -1.0906119880215           0.9787150615710           0.0000000000000
H             0.8672434798171          -1.0556259415571           0.0000000000000
O            -0.0468405327965          -0.7589378778018           0.0000000000000
