4

C            -0.5325309375683          -0.0000006603793           0.0000053125000
O             0.6779790625358          -0.0000026228965          -0.0000066874998
H            -1.1143020753934           0.9341879725091          -0.0000086875002
H            -1.1143447994818          -0.9341630270626           0.0000303124999
4

C            -0.5336590586290          -0.0000000352924           0.0000020194963
O             0.6785610637770           0.0000005394559          -0.0000047211857
H            -1.1132711468934           0.9355979180464          -0.0000067034100
H            -1.1132630115463          -0.9356020219385           0.0000323559177
4

C            -0.5341695821861           0.0000000000000           0.0001341651204
O             0.6787244909805          -0.0000002561620          -0.0000835349493
H            -1.1123872716629           0.9360104085242          -0.0000878938931
H            -1.1123911630649          -0.9360083814765          -0.0000488172364
4

C            -0.5343494322123           0.0000000316390          -0.0023949738701
O             0.6787759209294          -0.0000000698789           0.0005794476537
H            -1.1120549109473           0.9361507976322           0.0048671304516
H            -1.1120558632139          -0.9361504284348           0.0048671315390
4

C            -0.5353923018405           0.0000002921148           0.0001912232700
O             0.6792373263075           0.0000012589422          -0.0000461000554
H            -1.1107825547457           0.9372932378445          -0.0003892719741
H            -1.1107622446714          -0.9373050620717          -0.0003892672014
4

C            -0.5344773549064           0.0000000803852           0.0001724866031
O             0.6788536243437           0.0000001219637          -0.0001044765585
H            -1.1119835244912           0.9363341666662          -0.0001191096117
H            -1.1119813408187          -0.9363356246849          -0.0000799975383
4

C            -0.5342456464401           0.0000000218720           0.0001414933098
O             0.6787564086109          -0.0000001627532          -0.0000859863225
H            -1.1122874983124           0.9360904781957          -0.0001000856455
H            -1.1122898919338          -0.9360893074022          -0.0000609836328
