4

C            -0.5325309375683          -0.0000006603793           0.0000053125000
O             0.6779790625358          -0.0000026228965          -0.0000066874998
H            -1.1143020753934           0.9341879725091          -0.0000086875002
H            -1.1143447994818          -0.9341630270626           0.0000303124999
4

C            -0.5313744518831          -0.0000000546756           0.0000021369414
O             0.6759747442387           0.0000005197700          -0.0000047793201
H            -1.1097794790304           0.9379805323118          -0.0000068729409
H            -1.1097717635791          -0.9379843624176           0.0000322858504
4

C            -0.5311574168225           0.0000000181645           0.0000991400662
O             0.6757671815057          -0.0000001745306          -0.0000626494175
H            -1.1095951868214           0.9382336526379          -0.0000664072367
H            -1.1095977642928          -0.9382323653789          -0.0000272378200
